@<TRIPOS>MOLECULE
lligand11b_a.pdb
 50 52 0 0 0
SMALL
GASTEIGER

@<TRIPOS>ATOM
      1  C         41.9450   62.8880   62.8650 C.3     1  BUR1       -0.0559
      2  C         43.1040   64.6420   64.1480 C.3     1  BUR1       -0.0559
      3  C         44.3980   63.1260   62.6490 C.3     1  BUR1       -0.0559
      4  C         43.6100   60.4100   66.9150 C.ar    1  BUR1       -0.0583
      5  C         42.5380   60.3500   66.0290 C.ar    1  BUR1       -0.0613
      6  C         47.0720   65.5830   68.6370 C.ar    1  BUR1       -0.0416
      7  C         45.8260   64.9740   68.8050 C.ar    1  BUR1        0.0315
      8  C         47.7600   65.4160   67.4290 C.ar    1  BUR1       -0.0338
      9  C         44.6040   61.3700   66.7310 C.ar    1  BUR1       -0.0190
     10  C         42.4560   61.2710   64.9830 C.ar    1  BUR1       -0.0546
     11  C         49.8110   65.4560   61.0980 C.2     1  BUR1        0.1146
     12  C         50.5760   66.2010   60.1880 C.2     1  BUR1       -0.1529
     13  C         51.2450   67.6850   61.9830 C.2     1  BUR1       -0.1884
     14  C         48.5700   65.3650   64.5290 C.2     1  BUR1        0.3083
     15  C         49.7490   65.8040   62.4580 C.2     1  BUR1        0.0650
     16  C         51.3150   67.3070   60.6320 C.2     1  BUR1       -0.1745
     17  N         45.2820   64.2140   67.7440 N.ar    1  BUR1       -0.2194
     18  N         48.9560   65.0430   63.2600 N.am    1  BUR1       -0.2669
     19  N         47.7770   64.4480   65.1590 N.am    1  BUR1       -0.2648
     20  O         48.9890   66.3690   65.1140 O.2     1  BUR1       -0.2521
     21  O         45.4810   63.2870   65.5260 O.3     1  BUR1       -0.4361
     22  C         47.2080   64.6480   66.3830 C.ar    1  BUR1        0.0973
     23  C         44.5030   62.3280   65.7040 C.ar    1  BUR1        0.1341
     24  C         45.9600   64.0380   66.5820 C.ar    1  BUR1        0.2421
     25  C         43.4240   62.2730   64.7680 C.ar    1  BUR1        0.0003
     26  C         43.2360   63.1930   63.6560 C.3     1  BUR1       -0.0092
     27  H         41.8470   63.5860   62.0590 H       1  BUR1        0.0238
     28  H         41.1000   62.9740   63.5140 H       1  BUR1        0.0238
     29  H         41.9930   61.8940   62.4720 H       1  BUR1        0.0238
     30  H         42.9670   65.2920   63.3100 H       1  BUR1        0.0238
     31  H         43.9910   64.9220   64.6760 H       1  BUR1        0.0238
     32  H         42.2600   64.7210   64.8020 H       1  BUR1        0.0238
     33  H         44.2180   63.8160   61.8500 H       1  BUR1        0.0238
     34  H         44.4710   62.1340   62.2530 H       1  BUR1        0.0238
     35  H         45.3120   63.3810   63.1410 H       1  BUR1        0.0238
     36  H         43.6680   59.7470   67.7040 H       1  BUR1        0.0619
     37  H         41.8090   59.6290   66.1440 H       1  BUR1        0.0618
     38  H         47.4810   66.1490   69.3970 H       1  BUR1        0.0633
     39  H         45.3090   65.0770   69.6910 H       1  BUR1        0.0831
     40  H         48.6820   65.8620   67.3020 H       1  BUR1        0.0638
     41  H         45.4260   61.3790   67.3550 H       1  BUR1        0.0654
     42  H         41.6520   61.2160   64.3380 H       1  BUR1        0.0622
     43  H         50.5950   65.9340   59.1910 H       1  BUR1        0.0288
     44  H         48.6330   64.1870   62.8940 H       1  BUR1        0.1565
     45  H         47.6060   63.5930   64.7030 H       1  BUR1        0.1565
     46  C         50.4840   66.9300   62.8850 C.2     1  BUR1       -0.0679
     47  H         51.7550   68.5200   62.3130 H       1  BUR1        0.0260
     48  H         50.4610   67.2020   63.8800 H       1  BUR1        0.0610
     49  F         49.2830   64.6360   60.7610 F       1  BUR1       -0.2063
     50  F         52.1520   67.6670   59.9870 F       1  BUR1       -0.4231
@<TRIPOS>BOND
     1     1    26    1
     2     1    27    1
     3     1    28    1
     4     1    29    1
     5     2    26    1
     6     2    30    1
     7     2    31    1
     8     2    32    1
     9     3    26    1
    10     3    33    1
    11     3    34    1
    12     3    35    1
    13     4     5   ar
    14     4     9   ar
    15     4    36    1
    16     5    10   ar
    17     5    37    1
    18     6     8   ar
    19     6     7   ar
    20     6    38    1
    21     7    17   ar
    22     7    39    1
    23     8    22   ar
    24     8    40    1
    25     9    23   ar
    26     9    41    1
    27    10    25   ar
    28    10    42    1
    29    11    12    2
    30    11    15    1
    31    11    49    1
    32    12    16    1
    33    12    43    1
    34    13    16    2
    35    13    46    1
    36    13    47    1
    37    14    18   am
    38    14    20    2
    39    14    19   am
    40    15    18    1
    41    15    46    2
    42    16    50    1
    43    17    24   ar
    44    18    44    1
    45    19    22    1
    46    19    45    1
    47    21    23    1
    48    21    24    1
    49    22    24   ar
    50    23    25   ar
    51    25    26    1
    52    46    48    1
