@<TRIPOS>MOLECULE
lligand11c_a.pdb
 50 52 0 0 0
SMALL
GASTEIGER

@<TRIPOS>ATOM
      1  C         43.6080   60.4170   66.9050 C.2     1  BUR1       -0.0634
      2  C         42.5370   60.3580   66.0180 C.2     1  BUR1       -0.0905
      3  C         47.0740   65.5840   68.6350 C.ar    1  BUR1       -0.0416
      4  C         45.8270   64.9770   68.8010 C.ar    1  BUR1        0.0315
      5  C         47.7630   65.4180   67.4270 C.ar    1  BUR1       -0.0338
      6  C         44.6040   61.3760   66.7230 C.2     1  BUR1       -0.0536
      7  C         42.4570   61.2800   64.9730 C.2     1  BUR1       -0.1978
      8  C         49.8200   65.4610   61.0980 C.ar    1  BUR1        0.1472
      9  C         50.4930   66.9320   62.8860 C.ar    1  BUR1       -0.0349
     10  C         50.5860   66.2050   60.1890 C.ar    1  BUR1        0.0106
     11  C         51.2550   67.6870   61.9860 C.ar    1  BUR1       -0.0245
     12  C         48.5750   65.3680   64.5280 C.2     1  BUR1        0.3083
     13  C         49.7560   65.8080   62.4580 C.ar    1  BUR1        0.0704
     14  C         51.3260   67.3110   60.6350 C.ar    1  BUR1        0.1262
     15  N         45.2840   64.2180   67.7390 N.ar    1  BUR1       -0.2195
     16  N         48.9620   65.0470   63.2590 N.am    1  BUR1       -0.2667
     17  N         47.7810   64.4520   65.1560 N.am    1  BUR1       -0.2648
     18  O         48.9950   66.3710   65.1140 O.2     1  BUR1       -0.2521
     19  O         45.4830   63.2920   65.5210 O.3     1  BUR1       -0.4723
     20  C         47.2120   64.6510   66.3800 C.ar    1  BUR1        0.0973
     21  C         44.5040   62.3340   65.6970 C.2     1  BUR1       -0.0239
     22  C         45.9620   64.0420   66.5780 C.ar    1  BUR1        0.2395
     23  C         43.4260   62.2820   64.7600 C.2     1  BUR1       -0.3042
     24  H         43.6660   59.7530   67.6940 H       1  BUR1        0.0617
     25  H         41.8070   59.6380   66.1330 H       1  BUR1        0.0593
     26  H         47.4840   66.1500   69.3950 H       1  BUR1        0.0633
     27  H         45.3100   65.0800   69.6870 H       1  BUR1        0.0831
     28  H         48.6860   65.8630   67.3010 H       1  BUR1        0.0638
     29  H         45.4250   61.3840   67.3480 H       1  BUR1        0.0625
     30  C         41.6530   61.2270   64.3280 C.3     1  BUR1       -0.0428
     31  H         50.6060   65.9390   59.1920 H       1  BUR1        0.0675
     32  H         51.7660   68.5210   62.3170 H       1  BUR1        0.0647
     33  H         48.6390   64.1920   62.8920 H       1  BUR1        0.1565
     34  H         47.6100   63.5970   64.6990 H       1  BUR1        0.1565
     35  H         50.4690   67.2040   63.8820 H       1  BUR1        0.0638
     36  F         49.2910   64.6410   60.7600 F       1  BUR1       -0.2035
     37  F         52.1630   67.6700   59.9910 F       1  BUR1       -0.2054
     38  H         43.6710   62.3160   63.8440 H       1  BUR1       -0.1763
     39  C         41.0140   60.4210   64.6220 C.3     1  BUR1       -0.0586
     40  C         42.0060   61.0580   63.3320 C.3     1  BUR1       -0.0586
     41  C         41.1080   62.1470   64.3620 C.3     1  BUR1       -0.0586
     42  H         40.7550   62.3160   65.3580 H       1  BUR1        0.0237
     43  H         40.2740   62.0920   63.6930 H       1  BUR1        0.0237
     44  H         41.7480   62.9520   64.0690 H       1  BUR1        0.0237
     45  H         42.5520   60.1380   63.2980 H       1  BUR1        0.0237
     46  H         42.6460   61.8640   63.0390 H       1  BUR1        0.0237
     47  H         41.1720   61.0030   62.6630 H       1  BUR1        0.0237
     48  H         41.5610   59.5020   64.5880 H       1  BUR1        0.0237
     49  H         40.1800   60.3650   63.9530 H       1  BUR1        0.0237
     50  H         40.6610   60.5900   65.6180 H       1  BUR1        0.0237
@<TRIPOS>BOND
     1     1     2    2
     2     1     6    1
     3     1    24    1
     4     2     7    1
     5     2    25    1
     6     3     5   ar
     7     3     4   ar
     8     3    26    1
     9     4    15   ar
    10     4    27    1
    11     5    20   ar
    12     5    28    1
    13     6    21    2
    14     6    29    1
    15     7    23    2
    16     7    30    1
    17     8    10   ar
    18     8    13   ar
    19     8    36    1
    20     9    11   ar
    21     9    13   ar
    22     9    35    1
    23    10    14   ar
    24    10    31    1
    25    11    14   ar
    26    11    32    1
    27    12    16   am
    28    12    18    2
    29    12    17   am
    30    13    16    1
    31    14    37    1
    32    15    22   ar
    33    16    33    1
    34    17    20    1
    35    17    34    1
    36    19    21    1
    37    19    22    1
    38    20    22   ar
    39    21    23    1
    40    23    38    1
    41    30    39    1
    42    30    40    1
    43    30    41    1
    44    39    48    1
    45    39    49    1
    46    39    50    1
    47    40    45    1
    48    40    46    1
    49    40    47    1
    50    41    42    1
    51    41    43    1
    52    41    44    1
