@<TRIPOS>MOLECULE
lligand11f_a.pdb
 41 43 0 0 0
SMALL
GASTEIGER

@<TRIPOS>ATOM
      1  F         41.9450   62.8880   62.8650 F       1  BUR1       -0.1658
      2  F         43.1040   64.6420   64.1480 F       1  BUR1       -0.1658
      3  F         44.3980   63.1260   62.6490 F       1  BUR1       -0.1658
      4  C         43.6100   60.4100   66.9150 C.ar    1  BUR1       -0.0583
      5  C         42.5380   60.3500   66.0290 C.ar    1  BUR1       -0.0610
      6  C         47.0720   65.5830   68.6370 C.ar    1  BUR1       -0.0416
      7  C         45.8260   64.9740   68.8050 C.ar    1  BUR1        0.0315
      8  C         47.7600   65.4160   67.4290 C.ar    1  BUR1       -0.0338
      9  C         44.6040   61.3700   66.7310 C.ar    1  BUR1       -0.0187
     10  C         42.4560   61.2710   64.9830 C.ar    1  BUR1       -0.0465
     11  C         49.8110   65.4560   61.0980 C.ar    1  BUR1        0.1472
     12  C         50.5760   66.2010   60.1880 C.ar    1  BUR1        0.0106
     13  C         51.2450   67.6850   61.9830 C.ar    1  BUR1       -0.0245
     14  C         48.5700   65.3650   64.5290 C.2     1  BUR1        0.3083
     15  C         49.7490   65.8040   62.4580 C.ar    1  BUR1        0.0704
     16  C         51.3150   67.3070   60.6320 C.ar    1  BUR1        0.1262
     17  N         45.2820   64.2140   67.7440 N.ar    1  BUR1       -0.2194
     18  N         48.9560   65.0430   63.2600 N.am    1  BUR1       -0.2667
     19  N         47.7770   64.4480   65.1590 N.am    1  BUR1       -0.2648
     20  O         48.9890   66.3690   65.1140 O.2     1  BUR1       -0.2521
     21  O         45.4810   63.2870   65.5260 O.3     1  BUR1       -0.4358
     22  C         47.2080   64.6480   66.3830 C.ar    1  BUR1        0.0973
     23  C         44.5030   62.3280   65.7040 C.ar    1  BUR1        0.1421
     24  C         45.9600   64.0380   66.5820 C.ar    1  BUR1        0.2421
     25  C         43.4240   62.2730   64.7680 C.ar    1  BUR1        0.0970
     26  C         43.2360   63.1930   63.6560 C.3     1  BUR1        0.4208
     27  H         43.6680   59.7470   67.7040 H       1  BUR1        0.0619
     28  H         41.8090   59.6290   66.1440 H       1  BUR1        0.0618
     29  H         47.4810   66.1490   69.3970 H       1  BUR1        0.0633
     30  H         45.3090   65.0770   69.6910 H       1  BUR1        0.0831
     31  H         48.6820   65.8620   67.3020 H       1  BUR1        0.0638
     32  H         45.4260   61.3790   67.3550 H       1  BUR1        0.0654
     33  H         41.6520   61.2160   64.3380 H       1  BUR1        0.0624
     34  H         50.5950   65.9340   59.1910 H       1  BUR1        0.0675
     35  H         48.6330   64.1870   62.8940 H       1  BUR1        0.1565
     36  H         47.6060   63.5930   64.7030 H       1  BUR1        0.1565
     37  C         50.4840   66.9300   62.8850 C.ar    1  BUR1       -0.0349
     38  H         51.7550   68.5200   62.3130 H       1  BUR1        0.0647
     39  H         50.4610   67.2020   63.8800 H       1  BUR1        0.0638
     40  F         49.2830   64.6360   60.7610 F       1  BUR1       -0.2035
     41  F         52.1520   67.6670   59.9870 F       1  BUR1       -0.2054
@<TRIPOS>BOND
     1     1    26    1
     2     2    26    1
     3     3    26    1
     4     4     5   ar
     5     4     9   ar
     6     4    27    1
     7     5    10   ar
     8     5    28    1
     9     6     8   ar
    10     6     7   ar
    11     6    29    1
    12     7    17   ar
    13     7    30    1
    14     8    22   ar
    15     8    31    1
    16     9    23   ar
    17     9    32    1
    18    10    25   ar
    19    10    33    1
    20    11    12   ar
    21    11    15   ar
    22    11    40    1
    23    12    16   ar
    24    12    34    1
    25    13    16   ar
    26    13    37   ar
    27    13    38    1
    28    14    18   am
    29    14    20    2
    30    14    19   am
    31    15    18    1
    32    15    37   ar
    33    16    41    1
    34    17    24   ar
    35    18    35    1
    36    19    22    1
    37    19    36    1
    38    21    23    1
    39    21    24    1
    40    22    24   ar
    41    23    25   ar
    42    25    26    1
    43    37    39    1
