@<TRIPOS>MOLECULE
aligned/6a_a.pdb
 59 61 0 0 0
SMALL
GASTEIGER

@<TRIPOS>ATOM
      1  F1        41.9840   62.7190   62.0090 F       1  LIG1       -0.1704
      2  C1        43.0960   63.1910   62.5850 C.3     1  LIG1        0.3929
      3  F2        43.0300   64.5280   62.5180 F       1  LIG1       -0.1704
      4  F3        44.1260   62.8120   61.8190 F       1  LIG1       -0.1704
      5  C2        43.2500   62.7180   64.0370 C.3     1  LIG1        0.0567
      6  C3        44.5250   63.3580   64.6590 C.3     1  LIG1       -0.0155
      7  C4        45.0860   62.6020   65.8800 C.3     1  LIG1        0.0613
      8  O1        46.2620   63.2600   66.3900 O.3     1  LIG1       -0.3567
      9  C5        46.0790   64.5870   66.9220 C.3     1  LIG1        0.1282
     10  C6        47.4440   65.2440   67.2260 C.3     1  LIG1        0.0641
     11  N1        47.9410   66.0430   66.1200 N.am    1  LIG1       -0.2928
     12  C7        48.8580   65.5450   65.2450 C.2     1  LIG1        0.3002
     13  O2        49.5210   64.5400   65.5040 O.2     1  LIG1       -0.2528
     14  N2        48.9980   66.2200   64.0630 N.am    1  LIG1       -0.2966
     15  C8        49.7300   65.6110   62.9770 C.3     1  LIG1        0.0246
     16  C9        50.2410   66.6600   61.9660 C.3     1  LIG1       -0.0345
     17  C10       50.1480   66.2820   60.4750 C.3     1  LIG1       -0.0514
     18  C11       48.8850   65.5250   60.0200 C.3     1  LIG1       -0.0529
     19  C12       48.0860   64.8430   61.1380 C.3     1  LIG1       -0.0514
     20  C13       48.9430   64.4400   62.3370 C.3     1  LIG1       -0.0345
     21  C14       47.4040   66.1340   68.4920 C.3     1  LIG1       -0.0296
     22  C15       46.8270   65.4210   69.7300 C.3     1  LIG1       -0.0386
     23  C16       45.8780   64.2590   69.4050 C.3     1  LIG1       -0.0017
     24  N3        45.2170   64.5950   68.1300 N.3     1  LIG1       -0.2901
     25  C17       45.4530   61.1480   65.4630 C.3     1  LIG1       -0.0265
     26  C18       44.5300   60.4780   64.4130 C.3     1  LIG1       -0.0502
     27  C19       43.1770   61.1710   64.1850 C.3     1  LIG1       -0.0419
     28  H1        42.3690   63.1160   64.5980 H       1  LIG1        0.0388
     29  H2        44.2450   64.3900   64.9490 H       1  LIG1        0.0296
     30  H3        45.3490   63.4270   63.9130 H       1  LIG1        0.0296
     31  H4        44.3110   62.5440   66.6740 H       1  LIG1        0.0597
     32  H5        45.6120   65.2520   66.1620 H       1  LIG1        0.0786
     33  H6        48.1620   64.4210   67.4670 H       1  LIG1        0.0538
     34  H7        47.6560   66.9980   66.0870 H       1  LIG1        0.1507
     35  H8        48.5790   67.1100   63.9070 H       1  LIG1        0.1505
     36  H9        50.6430   65.1470   63.4310 H       1  LIG1        0.0499
     37  H10       51.3250   66.8250   62.1880 H       1  LIG1        0.0283
     38  H11       49.7350   67.6300   62.1440 H       1  LIG1        0.0283
     39  H12       51.0400   65.6750   60.2060 H       1  LIG1        0.0266
     40  H13       50.2130   67.2270   59.8870 H       1  LIG1        0.0266
     41  H14       49.2210   64.7410   59.2990 H       1  LIG1        0.0265
     42  H15       48.2030   66.2060   59.4660 H       1  LIG1        0.0265
     43  H16       47.5960   63.9290   60.7260 H       1  LIG1        0.0266
     44  H17       47.2770   65.5220   61.4870 H       1  LIG1        0.0266
     45  H18       48.2790   63.9850   63.1100 H       1  LIG1        0.0283
     46  H19       49.6640   63.6510   62.0340 H       1  LIG1        0.0283
     47  H20       46.7710   67.0200   68.2650 H       1  LIG1        0.0285
     48  H21       48.4290   66.5020   68.7190 H       1  LIG1        0.0285
     49  H22       46.2810   66.1840   70.3300 H       1  LIG1        0.0278
     50  H23       47.6550   65.0320   70.3620 H       1  LIG1        0.0278
     51  H24       45.1320   64.1430   70.2220 H       1  LIG1        0.0425
     52  H25       46.4530   63.3100   69.3140 H       1  LIG1        0.0425
     53  H26       44.2300   64.3920   68.0050 H       1  LIG1        0.1244
     54  H27       45.4840   60.5190   66.3780 H       1  LIG1        0.0290
     55  H28       46.4830   61.1460   65.0390 H       1  LIG1        0.0290
     56  H29       44.3310   59.4230   64.7220 H       1  LIG1        0.0266
     57  H30       45.0630   60.4240   63.4370 H       1  LIG1        0.0266
     58  H31       42.7090   60.7060   63.2850 H       1  LIG1        0.0271
     59  H32       42.5010   60.9270   65.0340 H       1  LIG1        0.0271
@<TRIPOS>BOND
     1     1     2    1
     2     2     3    1
     3     2     4    1
     4     2     5    1
     5     5     6    1
     6     5    27    1
     7     5    28    1
     8     6     7    1
     9     6    29    1
    10     6    30    1
    11     7     8    1
    12     7    25    1
    13     7    31    1
    14     8     9    1
    15     9    10    1
    16     9    24    1
    17     9    32    1
    18    10    11    1
    19    10    21    1
    20    10    33    1
    21    11    12   am
    22    11    34    1
    23    12    13    2
    24    12    14   am
    25    14    15    1
    26    14    35    1
    27    15    16    1
    28    15    20    1
    29    15    36    1
    30    16    17    1
    31    16    37    1
    32    16    38    1
    33    17    18    1
    34    17    39    1
    35    17    40    1
    36    18    19    1
    37    18    41    1
    38    18    42    1
    39    19    20    1
    40    19    43    1
    41    19    44    1
    42    20    45    1
    43    20    46    1
    44    21    22    1
    45    21    47    1
    46    21    48    1
    47    22    23    1
    48    22    49    1
    49    22    50    1
    50    23    24    1
    51    23    51    1
    52    23    52    1
    53    24    53    1
    54    25    26    1
    55    25    54    1
    56    25    55    1
    57    26    27    1
    58    26    56    1
    59    26    57    1
    60    27    58    1
    61    27    59    1
