@<TRIPOS>MOLECULE
aligned/6f_a.pdb
 59 61 0 0 0
SMALL
GASTEIGER

@<TRIPOS>ATOM
      1  F1        42.0030   62.7390   62.0050 F       1  LIG1       -0.1704
      2  C1        43.1130   63.2030   62.5900 C.3     1  LIG1        0.3929
      3  F2        43.0540   64.5410   62.5270 F       1  LIG1       -0.1704
      4  F3        44.1470   62.8220   61.8290 F       1  LIG1       -0.1704
      5  C2        43.2570   62.7260   64.0410 C.3     1  LIG1        0.0567
      6  C3        44.5310   63.3600   64.6690 C.3     1  LIG1       -0.0155
      7  C4        45.0900   62.6020   65.8890 C.3     1  LIG1        0.0613
      8  O1        46.2670   63.2560   66.3990 O.3     1  LIG1       -0.3567
      9  C5        46.0880   64.5870   66.9200 C.3     1  LIG1        0.1282
     10  C6        47.4550   65.2410   67.2260 C.3     1  LIG1        0.0641
     11  N1        47.9570   66.0420   66.1230 N.am    1  LIG1       -0.2928
     12  C7        48.8430   65.5020   65.2240 C.2     1  LIG1        0.3002
     13  O2        49.4030   64.4480   65.4150 O.2     1  LIG1       -0.2528
     14  N2        49.0420   66.2550   64.0820 N.am    1  LIG1       -0.2966
     15  C8        49.7530   65.6600   62.9780 C.3     1  LIG1        0.0247
     16  C9        50.1730   66.7250   61.9360 C.3     1  LIG1       -0.0318
     17  C10       50.1480   66.2570   60.4670 C.3     1  LIG1       -0.0201
     18  C11       48.9060   65.4710   60.0610 C.3     1  LIG1        0.1011
     19  F4        48.0860   66.2430   59.2740 F       1  LIG1       -0.2455
     20  C12       48.0950   64.8440   61.1730 C.3     1  LIG1       -0.0201
     21  C13       48.9740   64.4670   62.3670 C.3     1  LIG1       -0.0318
     22  C14       47.4090   66.1380   68.4860 C.3     1  LIG1       -0.0296
     23  C15       46.8300   65.4280   69.7250 C.3     1  LIG1       -0.0386
     24  C16       45.8790   64.2670   69.4020 C.3     1  LIG1       -0.0017
     25  N3        45.2210   64.6030   68.1260 N.3     1  LIG1       -0.2901
     26  C17       45.4490   61.1430   65.4750 C.3     1  LIG1       -0.0265
     27  C18       44.5350   60.4840   64.4100 C.3     1  LIG1       -0.0502
     28  C19       43.1820   61.1770   64.1850 C.3     1  LIG1       -0.0419
     29  H1        42.3750   63.1230   64.5980 H       1  LIG1        0.0388
     30  H2        44.2480   64.3900   64.9630 H       1  LIG1        0.0296
     31  H3        45.3570   63.4340   63.9270 H       1  LIG1        0.0296
     32  H4        44.3140   62.5460   66.6830 H       1  LIG1        0.0597
     33  H5        45.6260   65.2500   66.1560 H       1  LIG1        0.0786
     34  H6        48.1710   64.4210   67.4730 H       1  LIG1        0.0538
     35  H7        47.6970   66.9970   66.0960 H       1  LIG1        0.1507
     36  H8        48.6870   67.1720   63.9810 H       1  LIG1        0.1505
     37  H9        50.6950   65.2340   63.4040 H       1  LIG1        0.0499
     38  H10       51.2160   67.0420   62.1770 H       1  LIG1        0.0284
     39  H11       49.5320   67.6250   62.0440 H       1  LIG1        0.0284
     40  H12       51.0420   65.6200   60.2870 H       1  LIG1        0.0293
     41  H13       50.2520   67.1540   59.8130 H       1  LIG1        0.0293
     42  H14       49.2530   64.6550   59.4360 H       1  LIG1        0.0651
     43  H15       47.5760   63.9360   60.7920 H       1  LIG1        0.0293
     44  H16       47.3130   65.5540   61.5240 H       1  LIG1        0.0293
     45  H17       48.3280   63.9980   63.1440 H       1  LIG1        0.0284
     46  H18       49.7050   63.6870   62.0600 H       1  LIG1        0.0284
     47  H19       46.7740   67.0220   68.2550 H       1  LIG1        0.0285
     48  H20       48.4330   66.5090   68.7150 H       1  LIG1        0.0285
     49  H21       46.2850   66.1920   70.3240 H       1  LIG1        0.0278
     50  H22       47.6570   65.0390   70.3570 H       1  LIG1        0.0278
     51  H23       45.1310   64.1550   70.2190 H       1  LIG1        0.0425
     52  H24       46.4510   63.3160   69.3140 H       1  LIG1        0.0425
     53  H25       44.2370   64.3890   67.9970 H       1  LIG1        0.1244
     54  H26       45.4560   60.5140   66.3910 H       1  LIG1        0.0290
     55  H27       46.4860   61.1300   65.0690 H       1  LIG1        0.0290
     56  H28       44.3380   59.4250   64.7030 H       1  LIG1        0.0266
     57  H29       45.0740   60.4480   63.4360 H       1  LIG1        0.0266
     58  H30       42.7120   60.7160   63.2830 H       1  LIG1        0.0271
     59  H31       42.5060   60.9330   65.0340 H       1  LIG1        0.0271
@<TRIPOS>BOND
     1     1     2    1
     2     2     3    1
     3     2     4    1
     4     2     5    1
     5     5     6    1
     6     5    28    1
     7     5    29    1
     8     6     7    1
     9     6    30    1
    10     6    31    1
    11     7     8    1
    12     7    26    1
    13     7    32    1
    14     8     9    1
    15     9    10    1
    16     9    25    1
    17     9    33    1
    18    10    11    1
    19    10    22    1
    20    10    34    1
    21    11    12   am
    22    11    35    1
    23    12    13    2
    24    12    14   am
    25    14    15    1
    26    14    36    1
    27    15    16    1
    28    15    21    1
    29    15    37    1
    30    16    17    1
    31    16    38    1
    32    16    39    1
    33    17    18    1
    34    17    40    1
    35    17    41    1
    36    18    19    1
    37    18    20    1
    38    18    42    1
    39    20    21    1
    40    20    43    1
    41    20    44    1
    42    21    45    1
    43    21    46    1
    44    22    23    1
    45    22    47    1
    46    22    48    1
    47    23    24    1
    48    23    49    1
    49    23    50    1
    50    24    25    1
    51    24    51    1
    52    24    52    1
    53    25    53    1
    54    26    27    1
    55    26    54    1
    56    26    55    1
    57    27    28    1
    58    27    56    1
    59    27    57    1
    60    28    58    1
    61    28    59    1
