@<TRIPOS>MOLECULE
aligned/6g_a.pdb
 41 43 0 0 0
SMALL
GASTEIGER

@<TRIPOS>ATOM
      1 CL         52.7820   68.1230   59.6800 Cl      1  UNL1       -0.0835
      2  F         39.7150   61.3230   66.3950 F       1  UNL1       -0.1659
      3  F         40.3670   63.3440   66.8640 F       1  UNL1       -0.1659
      4  F         40.2480   62.6980   64.7980 F       1  UNL1       -0.1659
      5  O         45.4220   63.0290   65.5310 O.3     1  UNL1       -0.4363
      6  O         49.2360   66.3840   65.2540 O.2     1  UNL1       -0.2521
      7  N         47.5420   64.7890   64.9810 N.am    1  UNL1       -0.2648
      8  N         48.7990   65.4460   63.1570 N.am    1  UNL1       -0.2692
      9  N         45.4370   63.6260   67.7750 N.ar    1  UNL1       -0.2194
     10  C         44.3960   62.1950   65.8530 C.ar    1  UNL1        0.1310
     11  C         42.0290   61.7950   66.1150 C.ar    1  UNL1        0.0583
     12  C         47.0210   64.6560   66.2680 C.ar    1  UNL1        0.0973
     13  C         43.0800   62.6500   65.7870 C.ar    1  UNL1       -0.0076
     14  C         45.9760   63.7900   66.5470 C.ar    1  UNL1        0.2421
     15  C         44.6620   60.8840   66.2470 C.ar    1  UNL1       -0.0192
     16  C         42.2940   60.4830   66.5100 C.ar    1  UNL1       -0.0499
     17  C         43.6100   60.0280   66.5760 C.ar    1  UNL1       -0.0578
     18  C         49.7500   66.0850   62.3270 C.ar    1  UNL1        0.0349
     19  C         47.5460   65.4020   67.3170 C.ar    1  UNL1       -0.0338
     20  C         40.6200   62.2820   66.0440 C.3     1  UNL1        0.4175
     21  C         48.5970   65.6220   64.5350 C.2     1  UNL1        0.3082
     22  C         47.0190   65.2610   68.5950 C.ar    1  UNL1       -0.0416
     23  C         49.8060   65.7810   60.9670 C.ar    1  UNL1       -0.0391
     24  C         50.6330   67.0190   62.8690 C.ar    1  UNL1       -0.0391
     25  C         45.9730   64.3680   68.7710 C.ar    1  UNL1        0.0315
     26  C         50.7420   66.4110   60.1490 C.ar    1  UNL1       -0.0416
     27  C         51.5710   67.6490   62.0500 C.ar    1  UNL1       -0.0416
     28  C         51.6260   67.3450   60.6910 C.ar    1  UNL1        0.0411
     29  H         42.8750   63.6730   65.4780 H       1  UNL1        0.0660
     30  H         45.6840   60.5210   66.2990 H       1  UNL1        0.0654
     31  H         41.4890   59.8000   66.7700 H       1  UNL1        0.0623
     32  H         47.0990   64.2080   64.2720 H       1  UNL1        0.1565
     33  H         43.8170   59.0060   66.8820 H       1  UNL1        0.0619
     34  H         48.3600   66.1070   67.2200 H       1  UNL1        0.0638
     35  H         48.1920   64.7770   62.6890 H       1  UNL1        0.1564
     36  H         47.4110   65.8320   69.4290 H       1  UNL1        0.0633
     37  H         49.1240   65.0540   60.5320 H       1  UNL1        0.0636
     38  H         50.6540   67.3080   63.9100 H       1  UNL1        0.0636
     39  H         45.5260   64.2220   69.7480 H       1  UNL1        0.0831
     40  H         50.7750   66.1640   59.0910 H       1  UNL1        0.0633
     41  H         52.2530   68.3760   62.4850 H       1  UNL1        0.0633
@<TRIPOS>BOND
     1     1    28    1
     2     2    20    1
     3     3    20    1
     4     4    20    1
     5     5    10    1
     6     5    14    1
     7     6    21    2
     8     7    12    1
     9     7    21   am
    10     7    32    1
    11     8    18    1
    12     8    21   am
    13     8    35    1
    14     9    14   ar
    15     9    25   ar
    16    10    13   ar
    17    10    15   ar
    18    11    13   ar
    19    11    16   ar
    20    11    20    1
    21    12    14   ar
    22    12    19   ar
    23    13    29    1
    24    15    17   ar
    25    15    30    1
    26    16    17   ar
    27    16    31    1
    28    17    33    1
    29    18    23   ar
    30    18    24   ar
    31    19    22   ar
    32    19    34    1
    33    22    25   ar
    34    22    36    1
    35    23    26   ar
    36    23    37    1
    37    24    27   ar
    38    24    38    1
    39    25    39    1
    40    26    28   ar
    41    26    40    1
    42    27    28   ar
    43    27    41    1
