@<TRIPOS>MOLECULE
aligned/6h_a.pdb
 62 64 0 0 0
SMALL
GASTEIGER

@<TRIPOS>ATOM
      1  F1        41.9980   62.7380   62.0080 F       1  LIG1       -0.1704
      2  C1        43.1100   63.2010   62.5900 C.3     1  LIG1        0.3929
      3  F2        43.0500   64.5400   62.5280 F       1  LIG1       -0.1704
      4  F3        44.1420   62.8210   61.8280 F       1  LIG1       -0.1704
      5  C2        43.2550   62.7240   64.0410 C.3     1  LIG1        0.0567
      6  C3        44.5300   63.3600   64.6690 C.3     1  LIG1       -0.0155
      7  C4        45.0890   62.6010   65.8900 C.3     1  LIG1        0.0613
      8  O1        46.2650   63.2560   66.3990 O.3     1  LIG1       -0.3567
      9  C5        46.0860   64.5860   66.9200 C.3     1  LIG1        0.1282
     10  C6        47.4530   65.2410   67.2250 C.3     1  LIG1        0.0641
     11  N1        47.9560   66.0400   66.1210 N.am    1  LIG1       -0.2928
     12  C7        48.8400   65.5020   65.2280 C.2     1  LIG1        0.3002
     13  O2        49.4060   64.4470   65.4180 O.2     1  LIG1       -0.2528
     14  N2        49.0410   66.2550   64.0830 N.am    1  LIG1       -0.2966
     15  C8        49.7530   65.6590   62.9820 C.3     1  LIG1        0.0246
     16  C9        50.1770   66.7220   61.9400 C.3     1  LIG1       -0.0342
     17  C10       50.1550   66.2530   60.4740 C.3     1  LIG1       -0.0488
     18  C11       48.8950   65.4700   60.0260 C.3     1  LIG1       -0.0438
     19  C12       47.9760   66.3200   59.1380 C.3     1  LIG1       -0.0624
     20  C13       48.0940   64.8570   61.1890 C.3     1  LIG1       -0.0488
     21  C14       48.9800   64.4670   62.3680 C.3     1  LIG1       -0.0342
     22  C15       47.4090   66.1380   68.4850 C.3     1  LIG1       -0.0296
     23  C16       46.8330   65.4270   69.7230 C.3     1  LIG1       -0.0386
     24  C17       45.8810   64.2660   69.4000 C.3     1  LIG1       -0.0017
     25  N3        45.2200   64.6040   68.1260 N.3     1  LIG1       -0.2901
     26  C18       45.4490   61.1440   65.4740 C.3     1  LIG1       -0.0265
     27  C19       44.5340   60.4850   64.4090 C.3     1  LIG1       -0.0502
     28  C20       43.1810   61.1770   64.1860 C.3     1  LIG1       -0.0419
     29  H1        42.3730   63.1220   64.5990 H       1  LIG1        0.0388
     30  H2        44.2470   64.3900   64.9620 H       1  LIG1        0.0296
     31  H3        45.3550   63.4330   63.9260 H       1  LIG1        0.0296
     32  H4        44.3130   62.5450   66.6840 H       1  LIG1        0.0597
     33  H5        45.6240   65.2500   66.1550 H       1  LIG1        0.0786
     34  H6        48.1700   64.4200   67.4720 H       1  LIG1        0.0538
     35  H7        47.6940   66.9970   66.0940 H       1  LIG1        0.1507
     36  H8        48.6800   67.1680   63.9800 H       1  LIG1        0.1505
     37  H9        50.6960   65.2330   63.4070 H       1  LIG1        0.0499
     38  H10       51.2150   67.0490   62.1830 H       1  LIG1        0.0283
     39  H11       49.5230   67.6140   62.0390 H       1  LIG1        0.0283
     40  H12       51.0510   65.6210   60.2880 H       1  LIG1        0.0268
     41  H13       50.2590   67.1550   59.8270 H       1  LIG1        0.0268
     42  H14       49.2640   64.6150   59.4060 H       1  LIG1        0.0298
     43  H15       48.5060   66.6200   58.2100 H       1  LIG1        0.0232
     44  H16       47.6600   67.2350   59.6830 H       1  LIG1        0.0232
     45  H17       47.0690   65.7410   58.8620 H       1  LIG1        0.0232
     46  H18       47.5690   63.9460   60.8210 H       1  LIG1        0.0268
     47  H19       47.3150   65.5710   61.5340 H       1  LIG1        0.0268
     48  H20       48.3400   63.9890   63.1440 H       1  LIG1        0.0283
     49  H21       49.7110   63.6970   62.0400 H       1  LIG1        0.0283
     50  H22       46.7730   67.0210   68.2540 H       1  LIG1        0.0285
     51  H23       48.4330   66.5100   68.7120 H       1  LIG1        0.0285
     52  H24       46.2870   66.1900   70.3240 H       1  LIG1        0.0278
     53  H25       47.6610   65.0360   70.3540 H       1  LIG1        0.0278
     54  H26       45.1350   64.1520   70.2170 H       1  LIG1        0.0425
     55  H27       46.4540   63.3160   69.3090 H       1  LIG1        0.0425
     56  H28       44.2380   64.3830   67.9970 H       1  LIG1        0.1244
     57  H29       45.4580   60.5130   66.3890 H       1  LIG1        0.0290
     58  H30       46.4860   61.1310   65.0680 H       1  LIG1        0.0290
     59  H31       44.3410   59.4250   64.7010 H       1  LIG1        0.0266
     60  H32       45.0730   60.4510   63.4350 H       1  LIG1        0.0266
     61  H33       42.7100   60.7150   63.2860 H       1  LIG1        0.0271
     62  H34       42.5080   60.9330   65.0380 H       1  LIG1        0.0271
@<TRIPOS>BOND
     1     1     2    1
     2     2     3    1
     3     2     4    1
     4     2     5    1
     5     5     6    1
     6     5    28    1
     7     5    29    1
     8     6     7    1
     9     6    30    1
    10     6    31    1
    11     7     8    1
    12     7    26    1
    13     7    32    1
    14     8     9    1
    15     9    10    1
    16     9    25    1
    17     9    33    1
    18    10    11    1
    19    10    22    1
    20    10    34    1
    21    11    12   am
    22    11    35    1
    23    12    13    2
    24    12    14   am
    25    14    15    1
    26    14    36    1
    27    15    16    1
    28    15    21    1
    29    15    37    1
    30    16    17    1
    31    16    38    1
    32    16    39    1
    33    17    18    1
    34    17    40    1
    35    17    41    1
    36    18    19    1
    37    18    20    1
    38    18    42    1
    39    19    43    1
    40    19    44    1
    41    19    45    1
    42    20    21    1
    43    20    46    1
    44    20    47    1
    45    21    48    1
    46    21    49    1
    47    22    23    1
    48    22    50    1
    49    22    51    1
    50    23    24    1
    51    23    52    1
    52    23    53    1
    53    24    25    1
    54    24    54    1
    55    24    55    1
    56    25    56    1
    57    26    27    1
    58    26    57    1
    59    26    58    1
    60    27    28    1
    61    27    59    1
    62    27    60    1
    63    28    61    1
    64    28    62    1
