@<TRIPOS>MOLECULE
aligned/6i_a.pdb
 71 73 0 0 0
SMALL
GASTEIGER

@<TRIPOS>ATOM
      1  F1        41.9860   62.7280   62.0170 F       1  LIG1       -0.1704
      2  C1        43.0990   63.1940   62.5940 C.3     1  LIG1        0.3929
      3  F2        43.0380   64.5330   62.5310 F       1  LIG1       -0.1704
      4  F3        44.1290   62.8150   61.8270 F       1  LIG1       -0.1704
      5  C2        43.2510   62.7190   64.0450 C.3     1  LIG1        0.0567
      6  C3        44.5260   63.3570   64.6690 C.3     1  LIG1       -0.0155
      7  C4        45.0880   62.6010   65.8890 C.3     1  LIG1        0.0613
      8  O1        46.2650   63.2580   66.3970 O.3     1  LIG1       -0.3567
      9  C5        46.0840   64.5890   66.9160 C.3     1  LIG1        0.1282
     10  C6        47.4510   65.2450   67.2170 C.3     1  LIG1        0.0641
     11  N1        47.9520   66.0380   66.1120 N.am    1  LIG1       -0.2928
     12  C7        48.8340   65.5120   65.2170 C.2     1  LIG1        0.3002
     13  O2        49.4090   64.4460   65.4170 O.2     1  LIG1       -0.2528
     14  N2        49.0340   66.2460   64.0800 N.am    1  LIG1       -0.2966
     15  C8        49.7580   65.6580   62.9840 C.3     1  LIG1        0.0246
     16  C9        50.1780   66.7210   61.9480 C.3     1  LIG1       -0.0342
     17  C10       50.1590   66.2460   60.4870 C.3     1  LIG1       -0.0481
     18  C11       48.8640   65.5050   60.0350 C.3     1  LIG1       -0.0360
     19  C12       47.9470   66.3330   59.1400 C.3     1  LIG1       -0.0349
     20  C13       48.6760   66.6920   57.8300 C.3     1  LIG1       -0.0598
     21  C14       47.5090   67.6320   59.8470 C.3     1  LIG1       -0.0598
     22  C15       46.6940   65.5120   58.7750 C.3     1  LIG1       -0.0598
     23  C16       48.0990   64.8350   61.2050 C.3     1  LIG1       -0.0481
     24  C17       49.0010   64.4550   62.3700 C.3     1  LIG1       -0.0342
     25  C18       47.4100   66.1430   68.4750 C.3     1  LIG1       -0.0296
     26  C19       46.8400   65.4300   69.7150 C.3     1  LIG1       -0.0386
     27  C20       45.8900   64.2690   69.3940 C.3     1  LIG1       -0.0017
     28  N3        45.2220   64.6070   68.1240 N.3     1  LIG1       -0.2901
     29  C21       45.4520   61.1450   65.4740 C.3     1  LIG1       -0.0265
     30  C22       44.5370   60.4830   64.4120 C.3     1  LIG1       -0.0502
     31  C23       43.1810   61.1720   64.1940 C.3     1  LIG1       -0.0419
     32  H1        42.3700   63.1160   64.6060 H       1  LIG1        0.0388
     33  H2        44.2420   64.3870   64.9610 H       1  LIG1        0.0296
     34  H3        45.3500   63.4300   63.9240 H       1  LIG1        0.0296
     35  H4        44.3150   62.5440   66.6840 H       1  LIG1        0.0597
     36  H5        45.6210   65.2510   66.1520 H       1  LIG1        0.0786
     37  H6        48.1680   64.4240   67.4640 H       1  LIG1        0.0538
     38  H7        47.6870   66.9980   66.0800 H       1  LIG1        0.1507
     39  H8        48.6670   67.1650   63.9650 H       1  LIG1        0.1505
     40  H9        50.7010   65.2400   63.4140 H       1  LIG1        0.0499
     41  H10       51.2130   67.0550   62.1910 H       1  LIG1        0.0283
     42  H11       49.5190   67.6090   62.0400 H       1  LIG1        0.0283
     43  H12       51.0290   65.5770   60.3110 H       1  LIG1        0.0269
     44  H13       50.3300   67.1450   59.8590 H       1  LIG1        0.0269
     45  H14       49.2270   64.6550   59.4030 H       1  LIG1        0.0306
     46  H15       49.2580   65.8230   57.4590 H       1  LIG1        0.0235
     47  H16       49.3750   67.5390   57.9890 H       1  LIG1        0.0235
     48  H17       47.9490   66.9910   57.0490 H       1  LIG1        0.0235
     49  H18       48.3710   68.3210   59.9640 H       1  LIG1        0.0235
     50  H19       47.1070   67.4200   60.8570 H       1  LIG1        0.0235
     51  H20       46.7220   68.1470   59.2600 H       1  LIG1        0.0235
     52  H21       46.0370   65.3770   59.6590 H       1  LIG1        0.0235
     53  H22       46.9880   64.5110   58.3960 H       1  LIG1        0.0235
     54  H23       46.1060   66.0310   57.9910 H       1  LIG1        0.0235
     55  H24       47.6030   63.9080   60.8320 H       1  LIG1        0.0269
     56  H25       47.2960   65.4940   61.5930 H       1  LIG1        0.0269
     57  H26       48.3650   63.9700   63.1460 H       1  LIG1        0.0283
     58  H27       49.7350   63.6930   62.0350 H       1  LIG1        0.0283
     59  H28       46.7710   67.0250   68.2450 H       1  LIG1        0.0285
     60  H29       48.4340   66.5180   68.6970 H       1  LIG1        0.0285
     61  H30       46.2960   66.1930   70.3180 H       1  LIG1        0.0278
     62  H31       47.6730   65.0420   70.3430 H       1  LIG1        0.0278
     63  H32       45.1490   64.1500   70.2150 H       1  LIG1        0.0425
     64  H33       46.4640   63.3190   69.2980 H       1  LIG1        0.0425
     65  H34       44.2420   64.3730   67.9980 H       1  LIG1        0.1244
     66  H35       45.4650   60.5140   66.3890 H       1  LIG1        0.0290
     67  H36       46.4880   61.1350   65.0650 H       1  LIG1        0.0290
     68  H37       44.3480   59.4230   64.7020 H       1  LIG1        0.0266
     69  H38       45.0730   60.4530   63.4350 H       1  LIG1        0.0266
     70  H39       42.7060   60.7070   63.2970 H       1  LIG1        0.0271
     71  H40       42.5130   60.9270   65.0490 H       1  LIG1        0.0271
@<TRIPOS>BOND
     1     1     2    1
     2     2     3    1
     3     2     4    1
     4     2     5    1
     5     5     6    1
     6     5    31    1
     7     5    32    1
     8     6     7    1
     9     6    33    1
    10     6    34    1
    11     7     8    1
    12     7    29    1
    13     7    35    1
    14     8     9    1
    15     9    10    1
    16     9    28    1
    17     9    36    1
    18    10    11    1
    19    10    25    1
    20    10    37    1
    21    11    12   am
    22    11    38    1
    23    12    13    2
    24    12    14   am
    25    14    15    1
    26    14    39    1
    27    15    16    1
    28    15    24    1
    29    15    40    1
    30    16    17    1
    31    16    41    1
    32    16    42    1
    33    17    18    1
    34    17    43    1
    35    17    44    1
    36    18    19    1
    37    18    23    1
    38    18    45    1
    39    19    20    1
    40    19    21    1
    41    19    22    1
    42    20    46    1
    43    20    47    1
    44    20    48    1
    45    21    49    1
    46    21    50    1
    47    21    51    1
    48    22    52    1
    49    22    53    1
    50    22    54    1
    51    23    24    1
    52    23    55    1
    53    23    56    1
    54    24    57    1
    55    24    58    1
    56    25    26    1
    57    25    59    1
    58    25    60    1
    59    26    27    1
    60    26    61    1
    61    26    62    1
    62    27    28    1
    63    27    63    1
    64    27    64    1
    65    28    65    1
    66    29    30    1
    67    29    66    1
    68    29    67    1
    69    30    31    1
    70    30    68    1
    71    30    69    1
    72    31    70    1
    73    31    71    1
