@<TRIPOS>MOLECULE
aligned/6j_a.pdb
 63 65 0 0 0
SMALL
GASTEIGER

@<TRIPOS>ATOM
      1  F1        51.5780   69.2950   58.7050 F       1  LIG1       -0.1440
      2  C1        51.9390   68.1040   59.1680 C.3     1  LIG1        0.5246
      3  F2        53.2030   67.8660   58.8340 F       1  LIG1       -0.1440
      4  F3        51.1450   67.1830   58.6290 F       1  LIG1       -0.1440
      5  O1        51.8140   68.1160   60.5810 O.3     1  LIG1       -0.2885
      6  C2        52.3080   66.9490   61.2500 C.3     1  LIG1        0.0676
      7  C3        52.3790   67.2300   62.7740 C.3     1  LIG1       -0.0246
      8  C4        51.1880   66.6970   63.5820 C.3     1  LIG1       -0.0321
      9  C5        50.8680   65.2030   63.3450 C.3     1  LIG1        0.0247
     10  N1        49.4770   64.9370   63.6110 N.am    1  LIG1       -0.2966
     11  C6        49.0920   64.5660   64.8830 C.2     1  LIG1        0.3002
     12  O2        49.8820   64.2520   65.7410 O.2     1  LIG1       -0.2528
     13  N2        47.7350   64.6080   65.1080 N.am    1  LIG1       -0.2928
     14  C7        47.2660   64.5340   66.4780 C.3     1  LIG1        0.0641
     15  C8        45.7640   64.2340   66.6060 C.3     1  LIG1        0.1282
     16  O3        45.5320   62.8200   66.6140 O.3     1  LIG1       -0.3567
     17  C9        44.1520   62.4200   66.6530 C.3     1  LIG1        0.0613
     18  C10       44.0820   60.8970   66.9750 C.3     1  LIG1       -0.0155
     19  C11       43.0010   60.0630   66.2130 C.3     1  LIG1        0.0567
     20  C12       43.2370   58.5570   66.4060 C.3     1  LIG1        0.3929
     21  F4        43.2030   58.1970   67.6940 F       1  LIG1       -0.1704
     22  F5        42.3090   57.8240   65.7740 F       1  LIG1       -0.1704
     23  F6        44.4270   58.1740   65.9230 F       1  LIG1       -0.1704
     24  C13       42.8570   60.3910   64.6970 C.3     1  LIG1       -0.0419
     25  C14       43.5390   61.6890   64.2610 C.3     1  LIG1       -0.0502
     26  C15       43.4310   62.7780   65.3280 C.3     1  LIG1       -0.0265
     27  N3        45.2600   64.8660   67.8390 N.3     1  LIG1       -0.2901
     28  C16       45.1550   66.3420   67.7280 C.3     1  LIG1       -0.0017
     29  C17       46.5020   66.8790   67.2140 C.3     1  LIG1       -0.0386
     30  C18       47.6260   65.8310   67.2690 C.3     1  LIG1       -0.0296
     31  C19       51.2840   64.6670   61.9650 C.3     1  LIG1       -0.0321
     32  C20       51.3970   65.7500   60.9030 C.3     1  LIG1       -0.0246
     33  H1        53.3610   66.7220   60.9470 H       1  LIG1        0.0599
     34  H2        52.4670   68.3270   62.9450 H       1  LIG1        0.0291
     35  H3        53.3050   66.7690   63.1830 H       1  LIG1        0.0291
     36  H4        50.2910   67.3120   63.3550 H       1  LIG1        0.0284
     37  H5        51.3990   66.8280   64.6710 H       1  LIG1        0.0284
     38  H6        51.4990   64.6150   64.0590 H       1  LIG1        0.0499
     39  H7        48.8210   65.1430   62.9010 H       1  LIG1        0.1505
     40  H8        47.0780   64.7210   64.3790 H       1  LIG1        0.1507
     41  H9        47.8070   63.6960   66.9820 H       1  LIG1        0.0538
     42  H10       45.2990   64.7110   65.7170 H       1  LIG1        0.0786
     43  H11       43.6270   62.9530   67.4790 H       1  LIG1        0.0597
     44  H12       43.8850   60.7950   68.0680 H       1  LIG1        0.0296
     45  H13       45.0870   60.4570   66.7990 H       1  LIG1        0.0296
     46  H14       42.0200   60.3070   66.6850 H       1  LIG1        0.0388
     47  H15       41.7680   60.4750   64.4760 H       1  LIG1        0.0271
     48  H16       43.2490   59.5760   64.0450 H       1  LIG1        0.0271
     49  H17       43.0560   62.0490   63.3220 H       1  LIG1        0.0266
     50  H18       44.6130   61.4980   64.0360 H       1  LIG1        0.0266
     51  H19       43.8180   63.7130   64.8850 H       1  LIG1        0.0290
     52  H20       42.3590   62.9610   65.5550 H       1  LIG1        0.0290
     53  H21       44.5380   64.3570   68.3380 H       1  LIG1        0.1244
     54  H22       44.9340   66.7700   68.7310 H       1  LIG1        0.0425
     55  H23       44.3380   66.6450   67.0360 H       1  LIG1        0.0425
     56  H24       46.7940   67.7590   67.8300 H       1  LIG1        0.0278
     57  H25       46.3940   67.2250   66.1630 H       1  LIG1        0.0278
     58  H26       48.5760   66.2630   66.8930 H       1  LIG1        0.0285
     59  H27       47.7920   65.5530   68.3340 H       1  LIG1        0.0285
     60  H28       50.5300   63.9180   61.6270 H       1  LIG1        0.0284
     61  H29       52.2550   64.1330   62.0530 H       1  LIG1        0.0284
     62  H30       51.7720   65.2770   59.9690 H       1  LIG1        0.0291
     63  H31       50.3680   66.1340   60.7150 H       1  LIG1        0.0291
@<TRIPOS>BOND
     1     1     2    1
     2     2     3    1
     3     2     4    1
     4     2     5    1
     5     5     6    1
     6     6     7    1
     7     6    32    1
     8     6    33    1
     9     7     8    1
    10     7    34    1
    11     7    35    1
    12     8     9    1
    13     8    36    1
    14     8    37    1
    15     9    10    1
    16     9    31    1
    17     9    38    1
    18    10    11   am
    19    10    39    1
    20    11    12    2
    21    11    13   am
    22    13    14    1
    23    13    40    1
    24    14    15    1
    25    14    30    1
    26    14    41    1
    27    15    16    1
    28    15    27    1
    29    15    42    1
    30    16    17    1
    31    17    18    1
    32    17    26    1
    33    17    43    1
    34    18    19    1
    35    18    44    1
    36    18    45    1
    37    19    20    1
    38    19    24    1
    39    19    46    1
    40    20    21    1
    41    20    22    1
    42    20    23    1
    43    24    25    1
    44    24    47    1
    45    24    48    1
    46    25    26    1
    47    25    49    1
    48    25    50    1
    49    26    51    1
    50    26    52    1
    51    27    28    1
    52    27    53    1
    53    28    29    1
    54    28    54    1
    55    28    55    1
    56    29    30    1
    57    29    56    1
    58    29    57    1
    59    30    58    1
    60    30    59    1
    61    31    32    1
    62    31    60    1
    63    31    61    1
    64    32    62    1
    65    32    63    1
