@<TRIPOS>MOLECULE
aligned/6l_a.pdb
 63 65 0 0 0
SMALL
GASTEIGER

@<TRIPOS>ATOM
      1  F1        42.6650   63.1960   61.3300 F       1  LIG1       -0.1704
      2  C1        43.7020   63.5850   62.0790 C.3     1  LIG1        0.3929
      3  F2        43.7050   64.9260   62.0710 F       1  LIG1       -0.1704
      4  F3        44.8140   63.1870   61.4490 F       1  LIG1       -0.1704
      5  C2        43.6260   63.0440   63.5140 C.3     1  LIG1        0.0567
      6  C3        44.8270   63.5930   64.3380 C.3     1  LIG1       -0.0155
      7  C4        45.1800   62.7620   65.5860 C.3     1  LIG1        0.0613
      8  O1        46.3010   63.3420   66.2820 O.3     1  LIG1       -0.3567
      9  C5        46.1040   64.6570   66.8340 C.3     1  LIG1        0.1282
     10  C6        47.4400   65.2340   67.3550 C.3     1  LIG1        0.0641
     11  N1        48.1210   66.0550   66.3690 N.am    1  LIG1       -0.2928
     12  C7        49.1010   65.5090   65.5820 C.2     1  LIG1        0.3002
     13  O2        49.5870   64.4240   65.7970 O.2     1  LIG1       -0.2528
     14  N2        49.4870   66.2980   64.5150 N.am    1  LIG1       -0.2966
     15  C8        50.3160   65.7100   63.4960 C.3     1  LIG1        0.0247
     16  C9        50.9280   66.7950   62.5850 C.3     1  LIG1       -0.0321
     17  C10       51.1050   66.3940   61.1110 C.3     1  LIG1       -0.0249
     18  C11       49.9070   65.6590   60.4450 C.3     1  LIG1        0.0585
     19  O3        49.2170   66.5170   59.5470 O.3     1  LIG1       -0.3798
     20  C12       50.0280   66.8960   58.4400 C.3     1  LIG1        0.0368
     21  C13       48.8970   65.0710   61.4460 C.3     1  LIG1       -0.0249
     22  C14       49.5790   64.5890   62.7240 C.3     1  LIG1       -0.0321
     23  C15       47.2580   66.0830   68.6350 C.3     1  LIG1       -0.0296
     24  C16       46.4870   65.3490   69.7490 C.3     1  LIG1       -0.0386
     25  C17       45.5440   64.2480   69.2470 C.3     1  LIG1       -0.0017
     26  N3        45.0800   64.6650   67.9100 N.3     1  LIG1       -0.2901
     27  C18       45.5350   61.3070   65.1580 C.3     1  LIG1       -0.0265
     28  C19       44.7510   60.7350   63.9500 C.3     1  LIG1       -0.0502
     29  C20       43.4710   61.4970   63.5750 C.3     1  LIG1       -0.0419
     30  H1        42.6920   63.4590   63.9630 H       1  LIG1        0.0388
     31  H2        44.5470   64.6240   64.6360 H       1  LIG1        0.0296
     32  H3        45.7490   63.6600   63.7190 H       1  LIG1        0.0296
     33  H4        44.3010   62.7110   66.2640 H       1  LIG1        0.0597
     34  H5        45.7800   65.3710   66.0450 H       1  LIG1        0.0786
     35  H6        48.0820   64.3730   67.6590 H       1  LIG1        0.0538
     36  H7        47.9040   67.0210   66.3480 H       1  LIG1        0.1507
     37  H8        49.1760   67.2280   64.3970 H       1  LIG1        0.1505
     38  H9        51.1700   65.2180   64.0240 H       1  LIG1        0.0499
     39  H10       51.9330   67.0650   62.9900 H       1  LIG1        0.0284
     40  H11       50.3040   67.7120   62.6300 H       1  LIG1        0.0284
     41  H12       51.9960   65.7370   61.0200 H       1  LIG1        0.0291
     42  H13       51.3480   67.3350   60.5720 H       1  LIG1        0.0291
     43  H14       50.3200   64.7980   59.8700 H       1  LIG1        0.0596
     44  H15       50.8810   66.1960   58.3030 H       1  LIG1        0.0524
     45  H16       50.4290   67.9180   58.6180 H       1  LIG1        0.0524
     46  H17       49.4200   66.9050   57.5130 H       1  LIG1        0.0524
     47  H18       48.3840   64.2070   60.9640 H       1  LIG1        0.0291
     48  H19       48.1160   65.8220   61.6940 H       1  LIG1        0.0291
     49  H20       48.8140   64.1150   63.3790 H       1  LIG1        0.0284
     50  H21       50.3130   63.7940   62.4690 H       1  LIG1        0.0284
     51  H22       46.6970   67.0030   68.3600 H       1  LIG1        0.0285
     52  H23       48.2550   66.3970   69.0160 H       1  LIG1        0.0285
     53  H24       45.8970   66.1140   70.3040 H       1  LIG1        0.0278
     54  H25       47.2040   64.8970   70.4700 H       1  LIG1        0.0278
     55  H26       44.6880   64.1360   69.9480 H       1  LIG1        0.0425
     56  H27       46.0850   63.2760   69.1920 H       1  LIG1        0.0425
     57  H28       44.1170   64.4980   67.6380 H       1  LIG1        0.1244
     58  H29       45.3920   60.6410   66.0360 H       1  LIG1        0.0290
     59  H30       46.6170   61.2630   64.8960 H       1  LIG1        0.0290
     60  H31       44.4750   59.6750   64.1630 H       1  LIG1        0.0266
     61  H32       45.4170   60.7130   63.0570 H       1  LIG1        0.0266
     62  H33       43.1110   61.0940   62.5990 H       1  LIG1        0.0271
     63  H34       42.6760   61.2490   64.3140 H       1  LIG1        0.0271
@<TRIPOS>BOND
     1     1     2    1
     2     2     3    1
     3     2     4    1
     4     2     5    1
     5     5     6    1
     6     5    29    1
     7     5    30    1
     8     6     7    1
     9     6    31    1
    10     6    32    1
    11     7     8    1
    12     7    27    1
    13     7    33    1
    14     8     9    1
    15     9    10    1
    16     9    26    1
    17     9    34    1
    18    10    11    1
    19    10    23    1
    20    10    35    1
    21    11    12   am
    22    11    36    1
    23    12    13    2
    24    12    14   am
    25    14    15    1
    26    14    37    1
    27    15    16    1
    28    15    22    1
    29    15    38    1
    30    16    17    1
    31    16    39    1
    32    16    40    1
    33    17    18    1
    34    17    41    1
    35    17    42    1
    36    18    19    1
    37    18    21    1
    38    18    43    1
    39    19    20    1
    40    20    44    1
    41    20    45    1
    42    20    46    1
    43    21    22    1
    44    21    47    1
    45    21    48    1
    46    22    49    1
    47    22    50    1
    48    23    24    1
    49    23    51    1
    50    23    52    1
    51    24    25    1
    52    24    53    1
    53    24    54    1
    54    25    26    1
    55    25    55    1
    56    25    56    1
    57    26    57    1
    58    27    28    1
    59    27    58    1
    60    27    59    1
    61    28    29    1
    62    28    60    1
    63    28    61    1
    64    29    62    1
    65    29    63    1
