@<TRIPOS>MOLECULE
aligned/6m_a.pdb
 67 69 0 0 0
SMALL
GASTEIGER

@<TRIPOS>ATOM
      1  F1        41.9860   62.7380   62.0180 F       1  LIG1       -0.1704
      2  C1        43.0990   63.2030   62.5970 C.3     1  LIG1        0.3929
      3  F2        43.0370   64.5420   62.5360 F       1  LIG1       -0.1704
      4  F3        44.1290   62.8240   61.8320 F       1  LIG1       -0.1704
      5  C2        43.2500   62.7250   64.0470 C.3     1  LIG1        0.0567
      6  C3        44.5270   63.3600   64.6700 C.3     1  LIG1       -0.0155
      7  C4        45.0900   62.6000   65.8870 C.3     1  LIG1        0.0613
      8  O1        46.2690   63.2570   66.3940 O.3     1  LIG1       -0.3567
      9  C5        46.0890   64.5870   66.9180 C.3     1  LIG1        0.1282
     10  C6        47.4560   65.2420   67.2200 C.3     1  LIG1        0.0641
     11  N1        47.9510   66.0440   66.1170 N.am    1  LIG1       -0.2928
     12  C7        48.8350   65.5030   65.2200 C.2     1  LIG1        0.3002
     13  O2        49.3990   64.4520   65.4100 O.2     1  LIG1       -0.2528
     14  N2        49.0290   66.2560   64.0760 N.am    1  LIG1       -0.2966
     15  C8        49.7460   65.6540   62.9830 C.3     1  LIG1        0.0247
     16  C9        50.1910   66.7150   61.9560 C.3     1  LIG1       -0.0330
     17  C10       50.1750   66.2440   60.4940 C.3     1  LIG1       -0.0357
     18  C11       48.8880   65.4990   60.0380 C.3     1  LIG1        0.0100
     19  N3        48.0600   66.3690   59.1890 N.3     1  LIG1       -0.3054
     20  C12       48.6930   66.6420   57.9060 C.3     1  LIG1       -0.0128
     21  C13       47.5670   67.5560   59.8800 C.3     1  LIG1       -0.0128
     22  C14       48.0830   64.8450   61.1850 C.3     1  LIG1       -0.0357
     23  C15       48.9730   64.4610   62.3650 C.3     1  LIG1       -0.0330
     24  C16       47.4140   66.1390   68.4800 C.3     1  LIG1       -0.0296
     25  C17       46.8430   65.4260   69.7190 C.3     1  LIG1       -0.0386
     26  C18       45.8920   64.2650   69.3990 C.3     1  LIG1       -0.0017
     27  N4        45.2270   64.6010   68.1260 N.3     1  LIG1       -0.2901
     28  C19       45.4500   61.1440   65.4710 C.3     1  LIG1       -0.0265
     29  C20       44.5320   60.4860   64.4090 C.3     1  LIG1       -0.0502
     30  C21       43.1770   61.1760   64.1910 C.3     1  LIG1       -0.0419
     31  H1        42.3690   63.1210   64.6090 H       1  LIG1        0.0388
     32  H2        44.2430   64.3900   64.9650 H       1  LIG1        0.0296
     33  H3        45.3490   63.4350   63.9250 H       1  LIG1        0.0296
     34  H4        44.3180   62.5440   66.6840 H       1  LIG1        0.0597
     35  H5        45.6240   65.2490   66.1550 H       1  LIG1        0.0786
     36  H6        48.1740   64.4230   67.4630 H       1  LIG1        0.0538
     37  H7        47.6900   67.0000   66.0900 H       1  LIG1        0.1507
     38  H8        48.6750   67.1710   63.9720 H       1  LIG1        0.1505
     39  H9        50.6850   65.2240   63.4120 H       1  LIG1        0.0499
     40  H10       51.2300   67.0380   62.2040 H       1  LIG1        0.0284
     41  H11       49.5460   67.6140   62.0500 H       1  LIG1        0.0284
     42  H12       51.0440   65.5790   60.3100 H       1  LIG1        0.0281
     43  H13       50.3490   67.1510   59.8730 H       1  LIG1        0.0281
     44  H14       49.2390   64.6410   59.4090 H       1  LIG1        0.0462
     45  H15       49.5410   65.9470   57.7070 H       1  LIG1        0.0391
     46  H16       49.1090   67.6740   57.8810 H       1  LIG1        0.0391
     47  H17       47.9690   66.5390   57.0700 H       1  LIG1        0.0391
     48  H18       48.2460   68.4210   59.7150 H       1  LIG1        0.0391
     49  H19       47.5060   67.4170   60.9790 H       1  LIG1        0.0391
     50  H20       46.5510   67.8320   59.5240 H       1  LIG1        0.0391
     51  H21       47.5920   63.9260   60.7910 H       1  LIG1        0.0281
     52  H22       47.2620   65.4900   61.5560 H       1  LIG1        0.0281
     53  H23       48.3340   63.9810   63.1410 H       1  LIG1        0.0284
     54  H24       49.7050   63.6920   62.0370 H       1  LIG1        0.0284
     55  H25       46.7790   67.0220   68.2510 H       1  LIG1        0.0285
     56  H26       48.4390   66.5100   68.7020 H       1  LIG1        0.0285
     57  H27       46.3010   66.1890   70.3220 H       1  LIG1        0.0278
     58  H28       47.6740   65.0370   70.3470 H       1  LIG1        0.0278
     59  H29       45.1480   64.1500   70.2180 H       1  LIG1        0.0425
     60  H30       46.4660   63.3150   69.3060 H       1  LIG1        0.0425
     61  H31       44.2430   64.3840   68.0010 H       1  LIG1        0.1244
     62  H32       45.4620   60.5130   66.3850 H       1  LIG1        0.0290
     63  H33       46.4840   61.1320   65.0600 H       1  LIG1        0.0290
     64  H34       44.3380   59.4250   64.7010 H       1  LIG1        0.0266
     65  H35       45.0660   60.4510   63.4320 H       1  LIG1        0.0266
     66  H36       42.7040   60.7150   63.2910 H       1  LIG1        0.0271
     67  H37       42.5060   60.9310   65.0420 H       1  LIG1        0.0271
@<TRIPOS>BOND
     1     1     2    1
     2     2     3    1
     3     2     4    1
     4     2     5    1
     5     5     6    1
     6     5    30    1
     7     5    31    1
     8     6     7    1
     9     6    32    1
    10     6    33    1
    11     7     8    1
    12     7    28    1
    13     7    34    1
    14     8     9    1
    15     9    10    1
    16     9    27    1
    17     9    35    1
    18    10    11    1
    19    10    24    1
    20    10    36    1
    21    11    12   am
    22    11    37    1
    23    12    13    2
    24    12    14   am
    25    14    15    1
    26    14    38    1
    27    15    16    1
    28    15    23    1
    29    15    39    1
    30    16    17    1
    31    16    40    1
    32    16    41    1
    33    17    18    1
    34    17    42    1
    35    17    43    1
    36    18    19    1
    37    18    22    1
    38    18    44    1
    39    19    20    1
    40    19    21    1
    41    20    45    1
    42    20    46    1
    43    20    47    1
    44    21    48    1
    45    21    49    1
    46    21    50    1
    47    22    23    1
    48    22    51    1
    49    22    52    1
    50    23    53    1
    51    23    54    1
    52    24    25    1
    53    24    55    1
    54    24    56    1
    55    25    26    1
    56    25    57    1
    57    25    58    1
    58    26    27    1
    59    26    59    1
    60    26    60    1
    61    27    61    1
    62    28    29    1
    63    28    62    1
    64    28    63    1
    65    29    30    1
    66    29    64    1
    67    29    65    1
    68    30    66    1
    69    30    67    1
