@<TRIPOS>MOLECULE
aligned/6n_a.pdb
 60 62 0 0 0
SMALL
GASTEIGER

@<TRIPOS>ATOM
      1  F1        42.0000   62.7440   62.0090 F       1  LIG1       -0.1704
      2  C1        43.1090   63.2070   62.5960 C.3     1  LIG1        0.3929
      3  F2        43.0490   64.5460   62.5360 F       1  LIG1       -0.1704
      4  F3        44.1440   62.8280   61.8370 F       1  LIG1       -0.1704
      5  C2        43.2520   62.7270   64.0460 C.3     1  LIG1        0.0567
      6  C3        44.5290   63.3600   64.6720 C.3     1  LIG1       -0.0155
      7  C4        45.0930   62.5990   65.8870 C.3     1  LIG1        0.0613
      8  O1        46.2750   63.2550   66.3890 O.3     1  LIG1       -0.3567
      9  C5        46.0930   64.5830   66.9180 C.3     1  LIG1        0.1282
     10  C6        47.4580   65.2440   67.2230 C.3     1  LIG1        0.0641
     11  N1        47.9540   66.0470   66.1220 N.am    1  LIG1       -0.2928
     12  C7        48.8250   65.5270   65.2160 C.2     1  LIG1        0.3002
     13  O2        49.3930   64.4490   65.4100 O.2     1  LIG1       -0.2528
     14  N2        49.0330   66.2560   64.0810 N.am    1  LIG1       -0.2966
     15  C8        49.7520   65.6600   62.9830 C.3     1  LIG1        0.0246
     16  C9        50.1870   66.7170   61.9450 C.3     1  LIG1       -0.0333
     17  C10       50.1610   66.2530   60.4790 C.3     1  LIG1       -0.0357
     18  C11       48.8850   65.4750   60.0280 C.3     1  LIG1        0.0463
     19  C12       48.0110   66.2540   59.1460 C.1     1  LIG1        0.0659
     20  N3        47.3030   66.9160   58.4510 N.1     1  LIG1       -0.1963
     21  C13       48.0940   64.8410   61.1980 C.3     1  LIG1       -0.0357
     22  C14       48.9830   64.4590   62.3770 C.3     1  LIG1       -0.0333
     23  C15       47.4150   66.1390   68.4850 C.3     1  LIG1       -0.0296
     24  C16       46.8370   65.4310   69.7240 C.3     1  LIG1       -0.0386
     25  C17       45.8860   64.2690   69.4060 C.3     1  LIG1       -0.0017
     26  N4        45.2300   64.5930   68.1250 N.3     1  LIG1       -0.2901
     27  C18       45.4470   61.1400   65.4700 C.3     1  LIG1       -0.0265
     28  C19       44.5260   60.4810   64.4100 C.3     1  LIG1       -0.0502
     29  C20       43.1760   61.1780   64.1840 C.3     1  LIG1       -0.0419
     30  H1        42.3710   63.1230   64.6060 H       1  LIG1        0.0388
     31  H2        44.2450   64.3890   64.9690 H       1  LIG1        0.0296
     32  H3        45.3520   63.4370   63.9260 H       1  LIG1        0.0296
     33  H4        44.3230   62.5440   66.6850 H       1  LIG1        0.0597
     34  H5        45.6280   65.2490   66.1580 H       1  LIG1        0.0786
     35  H6        48.1790   64.4270   67.4670 H       1  LIG1        0.0538
     36  H7        47.6920   67.0110   66.1040 H       1  LIG1        0.1507
     37  H8        48.6920   67.1880   63.9770 H       1  LIG1        0.1505
     38  H9        50.6910   65.2350   63.4190 H       1  LIG1        0.0499
     39  H10       51.2290   67.0340   62.1910 H       1  LIG1        0.0283
     40  H11       49.5460   67.6190   62.0470 H       1  LIG1        0.0283
     41  H12       51.0530   65.6150   60.2900 H       1  LIG1        0.0278
     42  H13       50.2890   67.1610   59.8450 H       1  LIG1        0.0278
     43  H14       49.2580   64.6260   59.4080 H       1  LIG1        0.0454
     44  H15       47.5800   63.9210   60.8320 H       1  LIG1        0.0278
     45  H16       47.3040   65.5360   61.5610 H       1  LIG1        0.0278
     46  H17       48.3410   63.9880   63.1550 H       1  LIG1        0.0283
     47  H18       49.7140   63.6840   62.0620 H       1  LIG1        0.0283
     48  H19       46.7840   67.0260   68.2540 H       1  LIG1        0.0285
     49  H20       48.4410   66.5060   68.7120 H       1  LIG1        0.0285
     50  H21       46.2930   66.1960   70.3230 H       1  LIG1        0.0278
     51  H22       47.6650   65.0410   70.3560 H       1  LIG1        0.0278
     52  H23       45.1350   64.1620   70.2200 H       1  LIG1        0.0425
     53  H24       46.4580   63.3160   69.3260 H       1  LIG1        0.0425
     54  H25       44.2400   64.4130   68.0030 H       1  LIG1        0.1244
     55  H26       45.4560   60.5110   66.3850 H       1  LIG1        0.0290
     56  H27       46.4820   61.1230   65.0600 H       1  LIG1        0.0290
     57  H28       44.3240   59.4250   64.7100 H       1  LIG1        0.0266
     58  H29       45.0630   60.4340   63.4350 H       1  LIG1        0.0266
     59  H30       42.7090   60.7200   63.2790 H       1  LIG1        0.0271
     60  H31       42.4970   60.9290   65.0290 H       1  LIG1        0.0271
@<TRIPOS>BOND
     1     1     2    1
     2     2     3    1
     3     2     4    1
     4     2     5    1
     5     5     6    1
     6     5    29    1
     7     5    30    1
     8     6     7    1
     9     6    31    1
    10     6    32    1
    11     7     8    1
    12     7    27    1
    13     7    33    1
    14     8     9    1
    15     9    10    1
    16     9    26    1
    17     9    34    1
    18    10    11    1
    19    10    23    1
    20    10    35    1
    21    11    12   am
    22    11    36    1
    23    12    13    2
    24    12    14   am
    25    14    15    1
    26    14    37    1
    27    15    16    1
    28    15    22    1
    29    15    38    1
    30    16    17    1
    31    16    39    1
    32    16    40    1
    33    17    18    1
    34    17    41    1
    35    17    42    1
    36    18    19    1
    37    18    21    1
    38    18    43    1
    39    19    20    3
    40    21    22    1
    41    21    44    1
    42    21    45    1
    43    22    46    1
    44    22    47    1
    45    23    24    1
    46    23    48    1
    47    23    49    1
    48    24    25    1
    49    24    50    1
    50    24    51    1
    51    25    26    1
    52    25    52    1
    53    25    53    1
    54    26    54    1
    55    27    28    1
    56    27    55    1
    57    27    56    1
    58    28    29    1
    59    28    57    1
    60    28    58    1
    61    29    59    1
    62    29    60    1
